10
Cl4 Zr
Zr    2.654462    2.482631    6.019500
Zr    5.785462    4.919369    6.019500
Cl    3.570593    1.021476    7.560492
Cl    0.589880    2.890481    7.376295
Cl    3.720880    4.511519    7.376295
Cl    1.771520    0.991128    4.491751
Cl    4.902520    6.410872    4.491751
Cl    4.699005    2.908986    4.638627
Cl    7.830005    4.493014    4.638627
Cl    6.701593    6.380524    7.560492
